molecula 
__Jmol-14_12052310453D 1   1.00000     0.00000     0
Jmol version 14.6.4_2016.10.26  2016-10-26 12:26 EXTRACT: ({0:45})
 46 49  0  0  0  0              1 V2000
   3.37721   3.07213   0.22750 B   0  0  0  0  0  0
   3.83871   4.66252   0.21723 C   0  0  0  0  0  0
   2.52048   1.93671   1.03669 C   0  0  0  0  0  0
   2.07157   3.27810  -0.74667 C   0  0  0  0  0  0
   3.65560   3.76110   2.53859 Na  0  0  0  0  0  0
   4.76218   2.29345  -0.12872 C   0  0  0  0  0  0
   4.64536   5.05718  -0.80493 C   0  0  0  0  0  0
   5.12491   6.44724  -0.95496 C   0  0  0  0  0  0
   4.74725   7.37642  -0.08032 C   0  0  0  0  0  0
   3.84371   7.01297   1.02127 C   0  0  0  0  0  0
   3.41361   5.74908   1.16042 C   0  0  0  0  0  0
   1.72237   2.18946   2.09640 C   0  0  0  0  0  0
   0.89533   1.13214   2.72022 C   0  0  0  0  0  0
   0.90712  -0.11155   2.22953 C   0  0  0  0  0  0
   1.74625  -0.42929   1.06910 C   0  0  0  0  0  0
   2.50062   0.52250   0.51026 C   0  0  0  0  0  0
   1.05817   4.08992  -0.32231 C   0  0  0  0  0  0
  -0.18784   4.27952  -1.08318 C   0  0  0  0  0  0
  -0.36695   3.62778  -2.23194 C   0  0  0  0  0  0
   0.69308   2.73446  -2.72824 C   0  0  0  0  0  0
   1.82913   2.57449  -2.04248 C   0  0  0  0  0  0
   5.10035   1.54716  -1.20022 C   0  0  0  0  0  0
   6.44520   0.93514  -1.31975 C   0  0  0  0  0  0
   7.36037   1.12271  -0.36790 C   0  0  0  0  0  0
   7.03323   1.93796   0.80887 C   0  0  0  0  0  0
   5.81330   2.48159   0.92177 C   0  0  0  0  0  0
   4.99050   4.37866  -1.57309 H   0  0  0  0  0  0
   5.78135   6.70444  -1.77555 H   0  0  0  0  0  0
   5.09362   8.40204  -0.18386 H   0  0  0  0  0  0
   3.51867   7.77350   1.71341 H   0  0  0  0  0  0
   2.73446   5.56742   1.97650 H   0  0  0  0  0  0
   1.61369   3.17889   2.51746 H   0  0  0  0  0  0
   0.26889   1.37030   3.56655 H   0  0  0  0  0  0
   0.29188  -0.88279   2.68060 H   0  0  0  0  0  0
   1.74500  -1.43627   0.66230 H   0  0  0  0  0  0
   3.07360   0.22341  -0.34959 H   0  0  0  0  0  0
   1.10354   4.62272   0.61817 H   0  0  0  0  0  0
  -0.96442   4.93742  -0.70513 H   0  0  0  0  0  0
  -1.28112   3.75060  -2.79280 H   0  0  0  0  0  0
   0.53727   2.20215  -3.65963 H   0  0  0  0  0  0
   2.53304   1.89633  -2.47483 H   0  0  0  0  0  0
   4.44866   1.34668  -2.01873 H   0  0  0  0  0  0
   6.68097   0.33781  -2.18673 H   0  0  0  0  0  0
   8.34524   0.67774  -0.45683 H   0  0  0  0  0  0
   7.77610   2.09547   1.57905 H   0  0  0  0  0  0
   5.63140   3.07310   1.80651 H   0  0  0  0  0  0
  1  2  1  0  0  0
  1  3  1  0  0  0
  1  4  1  0  0  0
  1  5  1  0  0  0
  1  6  1  0  0  0
  7  8  1  0  0  0
  8  9  2  0  0  0
  9 10  1  0  0  0
 10 11  2  0  0  0
  2 11  1  0  0  0
  2  7  2  0  0  0
 12 13  1  0  0  0
 13 14  2  0  0  0
 14 15  1  0  0  0
 15 16  2  0  0  0
  3 16  1  0  0  0
  3 12  2  0  0  0
 17 18  1  0  0  0
 18 19  2  0  0  0
 19 20  1  0  0  0
 20 21  2  0  0  0
  4 21  1  0  0  0
  4 17  2  0  0  0
 22 23  1  0  0  0
 23 24  2  0  0  0
 24 25  1  0  0  0
 25 26  2  0  0  0
  6 26  1  0  0  0
  6 22  2  0  0  0
 27  7  1  0  0  0
 28  8  1  0  0  0
 29  9  1  0  0  0
 30 10  1  0  0  0
 31 11  1  0  0  0
 32 12  1  0  0  0
 33 13  1  0  0  0
 34 14  1  0  0  0
 35 15  1  0  0  0
 36 16  1  0  0  0
 37 17  1  0  0  0
 38 18  1  0  0  0
 39 19  1  0  0  0
 40 20  1  0  0  0
 41 21  1  0  0  0
 42 22  1  0  0  0
 43 23  1  0  0  0
 44 24  1  0  0  0
 45 25  1  0  0  0
 46 26  1  0  0  0
M  END
