
 OpenBabel06262410153D

 46 49  0  0  0  0  0  0  0  0999 V2000
    3.3772    3.0721    0.2275 B   0  0  0  0  0  0  0  0  0  0  0  0
    3.8387    4.6625    0.2172 C   0  0  0  0  0  0  0  0  0  0  0  0
    2.5205    1.9367    1.0367 C   0  0  0  0  0  0  0  0  0  0  0  0
    2.0716    3.2781   -0.7467 C   0  0  0  0  0  0  0  0  0  0  0  0
   -0.8626   -1.9662    3.9262 Na  0  0  0  0  0  0  0  0  0  0  0  0
    4.7622    2.2935   -0.1287 C   0  0  0  0  0  0  0  0  0  0  0  0
    4.6454    5.0572   -0.8049 C   0  0  0  0  0  0  0  0  0  0  0  0
    5.1249    6.4472   -0.9550 C   0  0  0  0  0  0  0  0  0  0  0  0
    4.7473    7.3764   -0.0803 C   0  0  0  0  0  0  0  0  0  0  0  0
    3.8437    7.0130    1.0213 C   0  0  0  0  0  0  0  0  0  0  0  0
    3.4136    5.7491    1.1604 C   0  0  0  0  0  0  0  0  0  0  0  0
    1.7224    2.1895    2.0964 C   0  0  0  0  0  0  0  0  0  0  0  0
    0.8953    1.1321    2.7202 C   0  0  0  0  0  0  0  0  0  0  0  0
    0.9071   -0.1116    2.2295 C   0  0  0  0  0  0  0  0  0  0  0  0
    1.7463   -0.4293    1.0691 C   0  0  0  0  0  0  0  0  0  0  0  0
    2.5006    0.5225    0.5103 C   0  0  0  0  0  0  0  0  0  0  0  0
    1.0582    4.0899   -0.3223 C   0  0  0  0  0  0  0  0  0  0  0  0
   -0.1878    4.2795   -1.0832 C   0  0  0  0  0  0  0  0  0  0  0  0
   -0.3670    3.6278   -2.2319 C   0  0  0  0  0  0  0  0  0  0  0  0
    0.6931    2.7345   -2.7282 C   0  0  0  0  0  0  0  0  0  0  0  0
    1.8291    2.5745   -2.0425 C   0  0  0  0  0  0  0  0  0  0  0  0
    5.1003    1.5472   -1.2002 C   0  0  0  0  0  0  0  0  0  0  0  0
    6.4452    0.9351   -1.3198 C   0  0  0  0  0  0  0  0  0  0  0  0
    7.3604    1.1227   -0.3679 C   0  0  0  0  0  0  0  0  0  0  0  0
    7.0332    1.9380    0.8089 C   0  0  0  0  0  0  0  0  0  0  0  0
    5.8133    2.4816    0.9218 C   0  0  0  0  0  0  0  0  0  0  0  0
    4.9905    4.3787   -1.5731 H   0  0  0  0  0  0  0  0  0  0  0  0
    5.7813    6.7044   -1.7756 H   0  0  0  0  0  0  0  0  0  0  0  0
    5.0936    8.4020   -0.1839 H   0  0  0  0  0  0  0  0  0  0  0  0
    3.5187    7.7735    1.7134 H   0  0  0  0  0  0  0  0  0  0  0  0
    2.7345    5.5674    1.9765 H   0  0  0  0  0  0  0  0  0  0  0  0
    1.6137    3.1789    2.5175 H   0  0  0  0  0  0  0  0  0  0  0  0
    0.2689    1.3703    3.5665 H   0  0  0  0  0  0  0  0  0  0  0  0
    0.2919   -0.8828    2.6806 H   0  0  0  0  0  0  0  0  0  0  0  0
    1.7450   -1.4363    0.6623 H   0  0  0  0  0  0  0  0  0  0  0  0
    3.0736    0.2234   -0.3496 H   0  0  0  0  0  0  0  0  0  0  0  0
    1.1035    4.6227    0.6182 H   0  0  0  0  0  0  0  0  0  0  0  0
   -0.9644    4.9374   -0.7051 H   0  0  0  0  0  0  0  0  0  0  0  0
   -1.2811    3.7506   -2.7928 H   0  0  0  0  0  0  0  0  0  0  0  0
    0.5373    2.2022   -3.6596 H   0  0  0  0  0  0  0  0  0  0  0  0
    2.5330    1.8963   -2.4748 H   0  0  0  0  0  0  0  0  0  0  0  0
    4.4487    1.3467   -2.0187 H   0  0  0  0  0  0  0  0  0  0  0  0
    6.6810    0.3378   -2.1867 H   0  0  0  0  0  0  0  0  0  0  0  0
    8.3452    0.6777   -0.4568 H   0  0  0  0  0  0  0  0  0  0  0  0
    7.7761    2.0955    1.5791 H   0  0  0  0  0  0  0  0  0  0  0  0
    5.6314    3.0731    1.8065 H   0  0  0  0  0  0  0  0  0  0  0  0
  1  2  1  0  0  0  0
  1  3  1  0  0  0  0
  1  4  1  0  0  0  0
  1  5  1  0  0  0  0
  1  6  1  0  0  0  0
  2 11  1  0  0  0  0
  2  7  2  0  0  0  0
  3 16  1  0  0  0  0
  3 12  2  0  0  0  0
  4 21  1  0  0  0  0
  4 17  2  0  0  0  0
  6 26  1  0  0  0  0
  6 22  2  0  0  0  0
  7  8  1  0  0  0  0
  8  9  2  0  0  0  0
  9 10  1  0  0  0  0
 10 11  2  0  0  0  0
 12 13  1  0  0  0  0
 13 14  2  0  0  0  0
 14 15  1  0  0  0  0
 15 16  2  0  0  0  0
 17 18  1  0  0  0  0
 18 19  2  0  0  0  0
 19 20  1  0  0  0  0
 20 21  2  0  0  0  0
 22 23  1  0  0  0  0
 23 24  2  0  0  0  0
 24 25  1  0  0  0  0
 25 26  2  0  0  0  0
 27  7  1  0  0  0  0
 28  8  1  0  0  0  0
 29  9  1  0  0  0  0
 30 10  1  0  0  0  0
 31 11  1  0  0  0  0
 32 12  1  0  0  0  0
 33 13  1  0  0  0  0
 34 14  1  0  0  0  0
 35 15  1  0  0  0  0
 36 16  1  0  0  0  0
 37 17  1  0  0  0  0
 38 18  1  0  0  0  0
 39 19  1  0  0  0  0
 40 20  1  0  0  0  0
 41 21  1  0  0  0  0
 42 22  1  0  0  0  0
 43 23  1  0  0  0  0
 44 24  1  0  0  0  0
 45 25  1  0  0  0  0
 46 26  1  0  0  0  0
M  END
