
 OpenBabel02282515103D

 13 13  0  0  0  0  0  0  0  0999 V2000
   -0.7503    1.1743    0.0173 C   0  0  0  0  0  0  0  0  0  0  0  0
    0.6404    1.2475    0.0328 C   0  0  0  0  0  0  0  0  0  0  0  0
    1.3993    0.0797    0.0322 C   0  0  0  0  0  0  0  0  0  0  0  0
    0.7674   -1.1613    0.0161 C   0  0  0  0  0  0  0  0  0  0  0  0
   -0.6233   -1.2345    0.0006 C   0  0  0  0  0  0  0  0  0  0  0  0
   -1.3821   -0.0667    0.0012 C   0  0  0  0  0  0  0  0  0  0  0  0
   -1.3126    2.0397    0.0178 H   0  0  0  0  0  0  0  0  0  0  0  0
    1.1086    2.1671    0.0448 O   0  0  0  0  0  0  0  0  0  0  0  0
    2.4298    0.1340    0.0437 H   0  0  0  0  0  0  0  0  0  0  0  0
    1.3297   -2.0267    0.0157 H   0  0  0  0  0  0  0  0  0  0  0  0
   -1.0915   -2.1541   -0.0113 H   0  0  0  0  0  0  0  0  0  0  0  0
   -2.4126   -0.1210   -0.0102 H   0  0  0  0  0  0  0  0  0  0  0  0
    0.5981    2.9528    0.0452 H   0  0  0  0  0  0  0  0  0  0  0  0
  1  2  2  0  0  0  0
  1  6  1  0  0  0  0
  1  7  1  0  0  0  0
  2  3  1  0  0  0  0
  2  8  1  0  0  0  0
  3  4  2  0  0  0  0
  3  9  1  0  0  0  0
  4  5  1  0  0  0  0
  4 10  1  0  0  0  0
  5  6  2  0  0  0  0
  5 11  1  0  0  0  0
  6 12  1  0  0  0  0
  8 13  1  0  0  0  0
M  END
