
 OpenBabel08022407423D

 23 22  0  0  0  0  0  0  0  0999 V2000
   -4.9541   -1.4663   -0.0564 C   0  0  0  0  0  0  0  0  0  0  0  0
   -3.8055   -0.7806    0.4279 O   0  0  0  0  0  0  0  0  0  0  0  0
   -4.8653   -1.6824   -1.1321 H   0  0  0  0  0  0  0  0  0  0  0  0
   -5.0271   -2.4072    0.4944 H   0  0  0  0  0  0  0  0  0  0  0  0
   -5.8700   -0.8780    0.1104 H   0  0  0  0  0  0  0  0  0  0  0  0
   -3.6257    0.4715   -0.2251 C   0  0  0  0  0  0  0  0  0  0  0  0
   -2.3669    1.1234    0.2851 C   0  0  0  0  0  0  0  0  0  0  0  0
   -3.5593    0.3290   -1.3171 H   0  0  0  0  0  0  0  0  0  0  0  0
   -4.4817    1.1371   -0.0198 H   0  0  0  0  0  0  0  0  0  0  0  0
   -1.2364    0.4021   -0.1943 O   0  0  0  0  0  0  0  0  0  0  0  0
   -2.3731    1.1387    1.3879 H   0  0  0  0  0  0  0  0  0  0  0  0
   -2.3348    2.1675   -0.0707 H   0  0  0  0  0  0  0  0  0  0  0  0
   -0.0125    0.9370    0.2991 C   0  0  0  0  0  0  0  0  0  0  0  0
    1.1355    0.1087   -0.2156 C   0  0  0  0  0  0  0  0  0  0  0  0
   -0.0111    0.9367    1.4020 H   0  0  0  0  0  0  0  0  0  0  0  0
    0.1174    1.9785   -0.0421 H   0  0  0  0  0  0  0  0  0  0  0  0
    1.1158   -1.1675    0.4148 O   0  0  0  0  0  0  0  0  0  0  0  0
    1.0578   -0.0030   -1.3105 H   0  0  0  0  0  0  0  0  0  0  0  0
    2.0814    0.6322    0.0069 H   0  0  0  0  0  0  0  0  0  0  0  0
    2.1587   -2.0075   -0.0667 C   0  0  0  0  0  0  0  0  0  0  0  0
    3.1484   -1.5685    0.1345 H   0  0  0  0  0  0  0  0  0  0  0  0
    2.0753   -2.9618    0.4592 H   0  0  0  0  0  0  0  0  0  0  0  0
    2.0625   -2.1808   -1.1494 H   0  0  0  0  0  0  0  0  0  0  0  0
  1  5  1  0  0  0  0
  1  2  1  0  0  0  0
  1  4  1  0  0  0  0
  3  1  1  0  0  0  0
  6  9  1  0  0  0  0
  6  7  1  0  0  0  0
  6  2  1  0  0  0  0
  7 11  1  0  0  0  0
  8  6  1  0  0  0  0
 10  7  1  0  0  0  0
 10 13  1  0  0  0  0
 12  7  1  0  0  0  0
 13 15  1  0  0  0  0
 14 19  1  0  0  0  0
 14 13  1  0  0  0  0
 14 17  1  0  0  0  0
 16 13  1  0  0  0  0
 18 14  1  0  0  0  0
 20 21  1  0  0  0  0
 20 17  1  0  0  0  0
 20 22  1  0  0  0  0
 23 20  1  0  0  0  0
M  END
